[General]
description = "Standard case, with parameters with standard values"
network = RemoteSensingSystem

cmdenv-status-frequency = 10s 
#cpu-time-limit = 200s
#debug-on-errors = true
output-scalar-file-append = false
output-scalar-precision = 4
simtime-resolution = 10ms # We only consider down to milliseconds.
parallel-simulation = false
resultdir-subdivision = true

sim-time-limit = 802.5s # READ THIS - must be equal to ***.simulation_time.
***.simulation_time = 802.5s # READ THIS - must be equal to sim-time-limit.
warmup-period = 2.5s # A Warm-Up period of 2.5 seconds.

**.vector-recording = false

repeat = 1 # We only need 1 repetition for this test.
num-rngs = 10 # In total, we have 10 different RNG flows.
seed-set = ${repetition} # In each repetiton, we use a different set of seeds.

***.H = 6000m # Vertical lenght of the working plane.
***.L = H # Horizontal lenght of the working plane.

***.N = 1000 # Number of sensing nodes.
***.M = 140 # Number of access points. 

# On average a wi-fi device send a packet every 200ms with a Trasmission range of 100m.

**.sensingnode*.D = 100m # Trasmission range of a sensing node.
**.sensingnode*.T = 200ms # Trasmission period of a sensing node.

**.accesspoints*.Psucc = 0.8 # Probability of a successful reception of an access point.

**.sensingnode*.Vmax = 5 # Maximum speed of a sensing node.
**.sensingnode*.Vmin = 1 # Minimum speed of a sensing node.
**.sensingnode*.max_distance_movement = 10m # Maximum distance for a movement of a sensing node.
**.sensingnode*.min_distance_movement = 1m # Minimum distance for a movement of a sensing node.

**.switch.access_point_position = "variable" # How the access point spwan position is generated.

**.sink.buffer_limit = 2 # The buffer size is 2 times N.
**.sink.buffer_cut = 15 # When i reach the max capacity, cut the first 15% of the buffer.

###################
#DEGENERANCY TESTS#
###################

[Config Degenerancy-Test-Firm-Sensing-Nodes-Access-Point-Deterministic]
description = "Test where Sensing Nodes stay firm at the spawning point"
repeat = 1 # We only need 1 repetition for this test.
num-rngs = 6 # In total, we have 10 different RNG flows.
seed-set = ${repetition} # In each repetiton, we use a different set of seeds.

***.H = 20m # Vertical lenght of the working plane.
***.L = H # Horizontal lenght of the working plane.

sim-time-limit = 802.5s # READ THIS - must be equal to ***.simulation_time.
***.simulation_time = 802.5s # READ THIS - must be equal to sim-time-limit.
warmup-period = 2.5s # A Warm-Up period of 2 seconds.

***.N = 5 # Number of sensing nodes.
***.M = 4 # Number of access points. 
**.sensingnode*.D = 4m # Trasmission range of a sensing node.
**.sensingnode*.T = 1s # Trasmission period of a sensing node.
**.accesspoints*.Psucc = 0.8 # Probability of a successful reception of an access point
**.sensingnode*.Vmax = 5 # Maximum speed of a sensing node.
**.sensingnode*.Vmin = 1 # Minimum speed of a sensing node.
**.sensingnode*.max_distance_movement = 10m # Maximum distance for a movement of a sensing node.
**.sensingnode*.min_distance_movement = 1m # Minimum distance for a movement of a sensing node.
**.switch.access_point_position = "deterministic"  # How the access point spwan position is generated.
**.sink.buffer_limit = 2 # The buffer size is 2 times N.
**.sink.buffer_cut = 15 # When i reach the max capacity, cut the first 15% of the buffer.
**.switch.num_mess = 2000

[Config Degenerancy-Test-No-Sensing-Nodes]
description = "There aren't any sensing nodes"

***.H = 100m # Vertical lenght of the working plane.
***.L = H # Horizontal lenght of the working plane.

sim-time-limit = 802.5s # READ THIS - must be equal to ***.simulation_time.
***.simulation_time = 802.5s # READ THIS - must be equal to sim-time-limit.
warmup-period = 2.5s # A Warm-Up period of 2 seconds.

repeat = 1 # We only need 1 repetition for this test.
num-rngs = 10 # In total, we have 10 different RNG flows.
seed-set = ${repetition} # In each repetiton, we use a different set of seeds.
***.N = 0 # Number of sensing nodes.
***.M = 16 # Number of access points. 
**.sensingnode*.D = 10m # Trasmission range of a sensing node.
**.sensingnode*.T = 5s # Trasmission period of a sensing node.
**.accesspoints*.Psucc = 0.8 # Probability of a successful reception of an access point
**.sensingnode*.Vmax = 5 # Maximum speed of a sensing node.
**.sensingnode*.Vmin = 1 # Minimum speed of a sensing node.
**.sensingnode*.max_distance_movement = 10m # Maximum distance for a movement of a sensing node.
**.sensingnode*.min_distance_movement = 1m # Minimum distance for a movement of a sensing node.
**.switch.access_point_position = "variable" # How the access point spwan position is generated.
**.sink.buffer_limit = 2 # The buffer size is 2 times N.
**.sink.buffer_cut = 15 # When i reach the max capacity, cut the first 15% of the buffer.

[Config Degenerancy-Test-No-Access-Points]
description = "There aren't any access points"

***.H = 100m # Vertical lenght of the working plane.
***.L = H # Horizontal lenght of the working plane.

sim-time-limit = 802.5s # READ THIS - must be equal to ***.simulation_time.
***.simulation_time = 802.5s # READ THIS - must be equal to sim-time-limit.
warmup-period = 2.5s # A Warm-Up period of 2.5 seconds.

repeat = 1 # We only need 1 repetition for this test.
num-rngs = 10 # In total, we have 10 different RNG flows.
seed-set = ${repetition} # In each repetiton, we use a different set of seeds.
***.N = 10 # Number of sensing nodes.
***.M = 0 # Number of access points. 
**.sensingnode*.D = 10m # Trasmission range of a sensing node.
**.sensingnode*.T = 5s # Trasmission period of a sensing node.
**.accesspoints*.Psucc = 0.8 # Probability of a successful reception of an access point
**.sensingnode*.Vmax = 5 # Maximum speed of a sensing node.
**.sensingnode*.Vmin = 1 # Minimum speed of a sensing node.
**.sensingnode*.max_distance_movement = 10m # Maximum distance for a movement of a sensing node.
**.sensingnode*.min_distance_movement = 1m # Minimum distance for a movement of a sensing node.
**.switch.access_point_position = "variable" # How the access point spwan position is generated.
**.sink.buffer_limit = 2 # The buffer size is 2 times N.
**.sink.buffer_cut = 15 # When i reach the max capacity, cut the first 15% of the buffer.

[Config Degenerancy-Test-Psucc-1]
description = "The Probability of correct reception of a message by the access point is 1"

***.H = 1000m # Vertical lenght of the working plane.
***.L = H # Horizontal lenght of the working plane.

sim-time-limit = 802.5s # READ THIS - must be equal to ***.simulation_time.
***.simulation_time = 802.5s # READ THIS - must be equal to sim-time-limit.
warmup-period = 2.5s # A Warm-Up period of 2.5 seconds.

repeat = 1 # We only need 1 repetition for this test.
num-rngs = 10 # In total, we have 10 different RNG flows.
seed-set = ${repetition} # In each repetiton, we use a different set of seeds.
***.N = 1000 # Number of sensing nodes.
***.M = 140 # Number of access points. 
**.sensingnode*.D = 100m # Trasmission range of a sensing node.
**.sensingnode*.T = 2s # Trasmission period of a sensing node.
**.accesspoints*.Psucc = 1 # Probability of a successful reception of an access point
**.sensingnode*.Vmax = 5 # Maximum speed of a sensing node.
**.sensingnode*.Vmin = 1 # Minimum speed of a sensing node.
**.sensingnode*.max_distance_movement = 10m # Maximum distance for a movement of a sensing node.
**.sensingnode*.min_distance_movement = 1m # Minimum distance for a movement of a sensing node.
**.switch.access_point_position = "variable" # How the access point spwan position is generated.
**.sink.buffer_limit = 2 # The buffer size is 2 times N.
**.sink.buffer_cut = 15 # When i reach the max capacity, cut the first 15% of the buffer.

[Config Degenerancy-Test-Psucc-0]
description = "The Probability of correct reception of a message by the access point is 0"

***.H = 1000m # Vertical lenght of the working plane.
***.L = H # Horizontal lenght of the working plane.

sim-time-limit = 802.5s # READ THIS - must be equal to ***.simulation_time.
***.simulation_time = 802.5s # READ THIS - must be equal to sim-time-limit.
warmup-period = 2.5s # A Warm-Up period of 2.5 seconds.

repeat = 1 # We only need 1 repetition for this test.
num-rngs = 10 # In total, we have 10 different RNG flows.
seed-set = ${repetition} # In each repetiton, we use a different set of seeds.
***.N = 1000 # Number of sensing nodes.
***.M = 140 # Number of access points. 
**.sensingnode*.D = 100m # Trasmission range of a sensing node.
**.sensingnode*.T = 2s # Trasmission period of a sensing node.
**.accesspoints*.Psucc = 0 # Probability of a successful reception of an access point
**.sensingnode*.Vmax = 5 # Maximum speed of a sensing node.
**.sensingnode*.Vmin = 1 # Minimum speed of a sensing node.
**.sensingnode*.max_distance_movement = 10m # Maximum distance for a movement of a sensing node.
**.sensingnode*.min_distance_movement = 1m # Minimum distance for a movement of a sensing node.
**.switch.access_point_position = "variable" # How the access point spwan position is generated.
**.sink.buffer_limit = 2 # The buffer size is 2 times N.
**.sink.buffer_cut = 15 # When i reach the max capacity, cut the first 15% of the buffer.

[Config Degenerancy-Test-D-0]
description = "Sensing Nodes' Trasmission range is set to 0m"
repeat = 1 # We only need 1 repetition for this test.
num-rngs = 10 # In total, we have 10 different RNG flows.
seed-set = ${repetition} # In each repetiton, we use a different set of seeds.
***.H = 1000m # Vertical lenght of the working plane.
***.L = H # Horizontal lenght of the working plane.

warmup-period = 2.5s # A Warm-Up period of 2.5 seconds.
sim-time-limit = 802.5s # READ THIS - must be equal to ***.simulation_time.
***.simulation_time = 802.5s # READ THIS - must be equal to sim-time-limit.

***.N = 1000 # Number of sensing nodes.
***.M = 140# Number of access points. 
**.sensingnode*.D = 0m # Trasmission range of a sensing node.
**.sensingnode*.T = 2s # Trasmission period of a sensing node.
**.accesspoints*.Psucc = 0.8 # Probability of a successful reception of an access point
**.sensingnode*.Vmax = 5 # Maximum speed of a sensing node.
**.sensingnode*.Vmin = 1 # Minimum speed of a sensing node.
**.sensingnode*.max_distance_movement = 10m # Maximum distance for a movement of a sensing node.
**.sensingnode*.min_distance_movement = 1m # Minimum distance for a movement of a sensing node.
**.switch.access_point_position = "variable" # How the access point spwan position is generated.
**.sink.buffer_limit = 2 # The buffer size is 2 times N.
**.sink.buffer_cut = 15 # When i reach the max capacity, cut the first 15% of the buffer.


[Config Degenerancy-Test-D-max]
description = "Sensing Nodes' Trasmission range is set to 4xH"
repeat = 1 # We only need 1 repetition for this test.
num-rngs = 10 # In total, we have 10 different RNG flows.
seed-set = ${repetition} # In each repetiton, we use a different set of seeds.
***.H = 1000m # Vertical lenght of the working plane.
***.L = H # Horizontal lenght of the working plane.
warmup-period = 2.5s # A Warm-Up period of 2.5 seconds.
sim-time-limit = 802.5s # READ THIS - must be equal to ***.simulation_time.
***.simulation_time = 802.5s # READ THIS - must be equal to sim-time-limit.

***.N = 1000 # Number of sensing nodes.
***.M = 140 # Number of access points. 
**.sensingnode*.D = 2*H # Trasmission range of a sensing node.
**.sensingnode*.T = 2s # Trasmission period of a sensing node.
**.accesspoints*.Psucc = 0.8 # Probability of a successful reception of an access point
**.sensingnode*.Vmax = 5 # Maximum speed of a sensing node.
**.sensingnode*.Vmin = 1 # Minimum speed of a sensing node.
**.sensingnode*.max_distance_movement = 10m # Maximum distance for a movement of a sensing node.
**.sensingnode*.min_distance_movement = 1m # Minimum distance for a movement of a sensing node.
**.switch.access_point_position = "variable" # How the access point spwan position is generated.
**.sink.buffer_limit = 2 # The buffer size is 2 times N.
**.sink.buffer_cut = 15 # When i reach the max capacity, cut the first 15% of the buffer.

###################
#CONSISTENCY TESTS#
###################

[Config Consistency-Test-T-1]
description = "Sensing Nodes' Trasmission period is set to 1s"
repeat = 1 # We only need 1 repetition for this test.
num-rngs = 10 # In total, we have 10 different RNG flows.
seed-set = ${repetition} # In each repetiton, we use a different set of seeds.
***.H = 1000m # Vertical lenght of the working plane.
***.L = H # Horizontal lenght of the working plane.

warmup-period = 2.5s # A Warm-Up period of 2.5 seconds.
sim-time-limit = 802.5s # READ THIS - must be equal to ***.simulation_time.
***.simulation_time = 802.5s # READ THIS - must be equal to sim-time-limit.

***.N = 100 # Number of sensing nodes.
***.M = 16# Number of access points. 
**.sensingnode*.D = 2*H # Trasmission range of a sensing node.
**.sensingnode*.T = 1s # Trasmission period of a sensing node.
**.accesspoints*.Psucc = 0.8 # Probability of a successful reception of an access point
**.sensingnode*.Vmax = 5 # Maximum speed of a sensing node.
**.sensingnode*.Vmin = 1 # Minimum speed of a sensing node.
**.sensingnode*.max_distance_movement = 10m # Maximum distance for a movement of a sensing node.
**.sensingnode*.min_distance_movement = 1m # Minimum distance for a movement of a sensing node.
**.switch.access_point_position = "variable" # How the access point spwan position is generated.
**.sink.buffer_limit = 2 # The buffer size is 2 times N.
**.sink.buffer_cut = 15 # When i reach the max capacity, cut the first 15% of the buffer.

[Config Consistency-Test-T-4]
description = "Sensing Nodes' Trasmission period is set to 4s"
repeat = 1 # We only need 1 repetition for this test.
num-rngs = 10 # In total, we have 10 different RNG flows.
seed-set = ${repetition} # In each repetiton, we use a different set of seeds.
***.H = 1000m # Vertical lenght of the working plane.
***.L = H # Horizontal lenght of the working plane.

warmup-period = 2.5s # A Warm-Up period of 2.5 seconds.
sim-time-limit = 802.5s # READ THIS - must be equal to ***.simulation_time.
***.simulation_time = 802.5s # READ THIS - must be equal to sim-time-limit.

***.N = 100 # Number of sensing nodes.
***.M = 16# Number of access points. 
**.sensingnode*.D = 2*H # Trasmission range of a sensing node.
**.sensingnode*.T = 4s # Trasmission period of a sensing node.
**.accesspoints*.Psucc = 0.8 # Probability of a successful reception of an access point
**.sensingnode*.Vmax = 5 # Maximum speed of a sensing node.
**.sensingnode*.Vmin = 1 # Minimum speed of a sensing node.
**.sensingnode*.max_distance_movement = 10m # Maximum distance for a movement of a sensing node.
**.sensingnode*.min_distance_movement = 1m # Minimum distance for a movement of a sensing node.
**.switch.access_point_position = "variable" # How the access point spwan position is generated.
**.sink.buffer_limit = 2 # The buffer size is 2 times N.
**.sink.buffer_cut = 15 # When i reach the max capacity, cut the first 15% of the buffer.

##################
#CONTINUITY TESTS#
##################

[Config Continuity-Test-Psucc-07] #standard case
description = "The Probability of correct reception of a message by the access point is 0.7 (standard case)"
repeat = 1 # We only need 1 repetition for this test.
num-rngs = 10 # In total, we have 10 different RNG flows.
seed-set = ${repetition} # In each repetiton, we use a different set of seeds.
***.H = 1000m # Vertical lenght of the working plane.
***.L = H # Horizontal lenght of the working plane.

warmup-period = 2.5s # A Warm-Up period of 2.5 seconds.
sim-time-limit = 802.5s # READ THIS - must be equal to ***.simulation_time.
***.simulation_time = 802.5s # READ THIS - must be equal to sim-time-limit.

***.N = 1000 # Number of sensing nodes.
***.M = 140 # Number of access points. 
**.sensingnode*.D = 200m # Trasmission range of a sensing node.
**.sensingnode*.T = 2s # Trasmission period of a sensing node.
**.accesspoints*.Psucc = 0.7 # Probability of a successful reception of an access point
**.sensingnode*.Vmax = 5 # Maximum speed of a sensing node.
**.sensingnode*.Vmin = 1 # Minimum speed of a sensing node.
**.sensingnode*.max_distance_movement = 10m # Maximum distance for a movement of a sensing node.
**.sensingnode*.min_distance_movement = 1m # Minimum distance for a movement of a sensing node.
**.switch.access_point_position = "variable" # How the access point spwan position is generated.
**.sink.buffer_limit = 2 # The buffer size is 2 times N.
**.sink.buffer_cut = 15 # When i reach the max capacity, cut the first 15% of the buffer.

[Config Continuity-Test-Psucc-065] #it should be slightly worse
description = "The Probability of correct reception of a message by the access point is 0.7 (slightly worse case)"
repeat = 1 # We only need 1 repetition for this test.
num-rngs = 10 # In total, we have 10 different RNG flows.
seed-set = ${repetition} # In each repetiton, we use a different set of seeds.
***.H = 1000m # Vertical lenght of the working plane.
***.L = H # Horizontal lenght of the working plane.

warmup-period = 2.5s # A Warm-Up period of 2.5 seconds.
sim-time-limit = 802.5s # READ THIS - must be equal to ***.simulation_time.
***.simulation_time = 802.5s # READ THIS - must be equal to sim-time-limit.

***.N = 1000 # Number of sensing nodes.
***.M = 140 # Number of access points. 
**.sensingnode*.D = 50m # Trasmission range of a sensing node.
**.sensingnode*.T = 2s # Trasmission period of a sensing node.
**.accesspoints*.Psucc = 0.65 # Probability of a successful reception of an access point
**.sensingnode*.Vmax = 5 # Maximum speed of a sensing node.
**.sensingnode*.Vmin = 1 # Minimum speed of a sensing node.
**.sensingnode*.max_distance_movement = 10m # Maximum distance for a movement of a sensing node.
**.sensingnode*.min_distance_movement = 1m # Minimum distance for a movement of a sensing node.
**.switch.access_point_position = "variable" # How the access point spwan position is generated.
**.sink.buffer_limit = 2 # The buffer size is 2 times N.
**.sink.buffer_cut = 15 # When i reach the max capacity, cut the first 15% of the buffer.


[Config Continuity-Test-Psucc-075] #it should be slightly better
description = "The Probability of correct reception of a message by the access point is 0.7 (better case)"
repeat = 1 # We only need 1 repetition for this test.
num-rngs = 10 # In total, we have 10 different RNG flows.
seed-set = ${repetition} # In each repetiton, we use a different set of seeds.
***.H = 1000m # Vertical lenght of the working plane.
***.L = H # Horizontal lenght of the working plane.

warmup-period = 2.5s # A Warm-Up period of 2.5 seconds.
sim-time-limit = 802.5s # READ THIS - must be equal to ***.simulation_time.
***.simulation_time = 802.5s # READ THIS - must be equal to sim-time-limit.

***.N = 1000 # Number of sensing nodes.
***.M = 140 # Number of access points. 
**.sensingnode*.D = 50m # Trasmission range of a sensing node.
**.sensingnode*.T = 2s # Trasmission period of a sensing node.
**.accesspoints*.Psucc = 0.75 # Probability of a successful reception of an access point.
**.sensingnode*.Vmax = 5 # Maximum speed of a sensing node.
**.sensingnode*.Vmin = 1 # Minimum speed of a sensing node.
**.sensingnode*.max_distance_movement = 10m # Maximum distance for a movement of a sensing node.
**.sensingnode*.min_distance_movement = 1m # Minimum distance for a movement of a sensing node.
**.switch.access_point_position = "variable" # How the access point spwan position is generated.
**.sink.buffer_limit = 2 # The buffer size is 2 times N.
**.sink.buffer_cut = 15 # When i reach the max capacity, cut the first 15% of the buffer.


[Config Continuity-Test-D-80] #standard case
description = "The Trasmission range of a sensing node is 80m"
repeat = 1 # We only need 1 repetition for this test.
num-rngs = 10 # In total, we have 10 different RNG flows.
seed-set = ${repetition} # In each repetiton, we use a different set of seeds.
***.H = 1000m # Vertical lenght of the working plane.
***.L = H # Horizontal lenght of the working plane.

warmup-period = 2.5s # A Warm-Up period of 2.5 seconds.
sim-time-limit = 802.5s # READ THIS - must be equal to ***.simulation_time.
***.simulation_time = 802.5s # READ THIS - must be equal to sim-time-limit.

***.N = 1000 # Number of sensing nodes.
***.M = 140 # Number of access points. 
**.sensingnode*.D = 80m # Trasmission range of a sensing node.
**.sensingnode*.T = 2s # Trasmission period of a sensing node.
**.accesspoints*.Psucc = 0.8 # Probability of a successful reception of an access point
**.sensingnode*.Vmax = 5 # Maximum speed of a sensing node.
**.sensingnode*.Vmin = 1 # Minimum speed of a sensing node.
**.sensingnode*.max_distance_movement = 10m # Maximum distance for a movement of a sensing node.
**.sensingnode*.min_distance_movement = 1m # Minimum distance for a movement of a sensing node.
**.switch.access_point_position = "variable" # How the access point spwan position is generated.
**.sink.buffer_limit = 2 # The buffer size is 2 times N.
**.sink.buffer_cut = 15 # When i reach the max capacity, cut the first 15% of the buffer.

[Config Continuity-Test-D-90] #it should be slightly better in terms of Number of successful arrived packets
description = "The Trasmission range of a sensing node is 90m"
repeat = 1 # We only need 1 repetition for this test.
num-rngs = 10 # In total, we have 10 different RNG flows.
seed-set = ${repetition} # In each repetiton, we use a different set of seeds.
***.H = 1000m # Vertical lenght of the working plane.
***.L = H # Horizontal lenght of the working plane.

warmup-period = 2.5s # A Warm-Up period of 2.5 seconds.
sim-time-limit = 802.5s # READ THIS - must be equal to ***.simulation_time.
***.simulation_time = 802.5s # READ THIS - must be equal to sim-time-limit.

***.N = 1000 # Number of sensing nodes.
***.M = 140 # Number of access points. 
**.sensingnode*.D = 90m # Trasmission range of a sensing node.
**.sensingnode*.T = 2s # Trasmission period of a sensing node.
**.accesspoints*.Psucc = 0.8 # Probability of a successful reception of an access point
**.sensingnode*.Vmax = 5 # Maximum speed of a sensing node.
**.sensingnode*.Vmin = 1 # Minimum speed of a sensing node.
**.sensingnode*.max_distance_movement = 10m # Maximum distance for a movement of a sensing node.
**.sensingnode*.min_distance_movement = 1m # Minimum distance for a movement of a sensing node.
**.switch.access_point_position = "variable" # How the access point spwan position is generated.
**.sink.buffer_limit = 2 # The buffer size is 2 times N.
**.sink.buffer_cut = 15 # When i reach the max capacity, cut the first 15% of the buffer.

[Config Continuity-Test-D-70] #it should be slightly worse in terms of Number of successful arrived packets
description = "The Trasmission range of a sensing node is 70m"
repeat = 1 # We only need 1 repetition for this test.
num-rngs = 10 # In total, we have 10 different RNG flows.
seed-set = ${repetition} # In each repetiton, we use a different set of seeds.
***.H = 1000m # Vertical lenght of the working plane.
***.L = H # Horizontal lenght of the working plane.

warmup-period = 2.5s # A Warm-Up period of 2.5 seconds.
sim-time-limit = 802.5s # READ THIS - must be equal to ***.simulation_time.
***.simulation_time = 802.5s # READ THIS - must be equal to sim-time-limit.

***.N = 1000 # Number of sensing nodes.
***.M = 140 # Number of access points. 
**.sensingnode*.D = 70m # Trasmission range of a sensing node.
**.sensingnode*.T = 2s # Trasmission period of a sensing node.
**.accesspoints*.Psucc = 0.8 # Probability of a successful reception of an access point
**.sensingnode*.Vmax = 5 # Maximum speed of a sensing node.
**.sensingnode*.Vmin = 1 # Minimum speed of a sensing node.
**.sensingnode*.max_distance_movement = 10m # Maximum distance for a movement of a sensing node.
**.sesingnode*.min_distance_movement = 1m # Minimum distance for a movement of a sensing node.
**.switch.access_point_position = "variable" # How the access point spwan position is generated.
**.sink.buffer_limit = 2 # The buffer size is 2 times N.
**.sink.buffer_cut = 15 # When i reach the max capacity, cut the first 15% of the buffer.

##################
#SIMULATION CASES#
##################

[Config The-2kr]
# k = 4 and r = 30 , so in total we'll get 480 simulations.
sim-time-limit = 1802.5s # READ THIS - must be equal to [***.simulation_time].
***.simulation_time =1802.5s # READ THIS - must be equal to [sim-time-limit].
warmup-period = 2.5s # A Warm-Up period of 2.5 seconds.

resultdir-subdivision = true
repeat = 30 # We'll do 30 repetition, so we'll have 30 samples and the CLT theorem can be utilized.

description = "2kr Analysis of the rate of successful received unique message"

***.H = ${2500m , 8000m}# Vertical lenght of the working plane.
***.L = H # Horizontal lenght of the working plane.

***.N = 1000 # Number of sensing nodes.
***.M = 140 # Number of access points. 

**.sensingnode*.D = ${50m , 170m} # Trasmission range of a sensing node.
**.sensingnode*.T = 200ms # Trasmission period of a sensing node.
**.accesspoints*.Psucc =  ${0.3 , 0.8} # Probability of a successful reception of an access point.
**.sensingnode*.Vmax = ${4 , 10} # Maximum speed of a sensing node.
**.sensingnode*.Vmin = 2 # Minimum speed of a sensing node.
**.sensingnode*.max_distance_movement = 10m # Maximum distance for a movement of a sensing node.
**.sensingnode*.min_distance_movement = 1m # Minimum distance for a movement of a sensing node.
**.switch.access_point_position = "variable" # How the access point spwan position is generated.
**.sink.buffer_limit = 2 # The buffer size is 2 times N.
**.sink.buffer_cut = 15 # When i reach the max capacity, cut the first 15% of the buffer.
**.switch.num_mess = 9000000

seed-set = ${repetition} # In each repetiton, we use a different set of seeds.
num-rngs = 2142
**.switch.rng-0 = 0
**.switch.rng-1 = 1
**.sensingnodes[0].rng-0 = 2
**.sensingnodes[0].rng-1 = 3
**.sensingnodes[1].rng-0 = 4
**.sensingnodes[1].rng-1 = 5
**.sensingnodes[2].rng-0 = 6
**.sensingnodes[2].rng-1 = 7
**.sensingnodes[3].rng-0 = 8
**.sensingnodes[3].rng-1 = 9
**.sensingnodes[4].rng-0 = 10
**.sensingnodes[4].rng-1 = 11
**.sensingnodes[5].rng-0 = 12
**.sensingnodes[5].rng-1 = 13
**.sensingnodes[6].rng-0 = 14
**.sensingnodes[6].rng-1 = 15
**.sensingnodes[7].rng-0 = 16
**.sensingnodes[7].rng-1 = 17
**.sensingnodes[8].rng-0 = 18
**.sensingnodes[8].rng-1 = 19
**.sensingnodes[9].rng-0 = 20
**.sensingnodes[9].rng-1 = 21
**.sensingnodes[10].rng-0 = 22
**.sensingnodes[10].rng-1 = 23
**.sensingnodes[11].rng-0 = 24
**.sensingnodes[11].rng-1 = 25
**.sensingnodes[12].rng-0 = 26
**.sensingnodes[12].rng-1 = 27
**.sensingnodes[13].rng-0 = 28
**.sensingnodes[13].rng-1 = 29
**.sensingnodes[14].rng-0 = 30
**.sensingnodes[14].rng-1 = 31
**.sensingnodes[15].rng-0 = 32
**.sensingnodes[15].rng-1 = 33
**.sensingnodes[16].rng-0 = 34
**.sensingnodes[16].rng-1 = 35
**.sensingnodes[17].rng-0 = 36
**.sensingnodes[17].rng-1 = 37
**.sensingnodes[18].rng-0 = 38
**.sensingnodes[18].rng-1 = 39
**.sensingnodes[19].rng-0 = 40
**.sensingnodes[19].rng-1 = 41
**.sensingnodes[20].rng-0 = 42
**.sensingnodes[20].rng-1 = 43
**.sensingnodes[21].rng-0 = 44
**.sensingnodes[21].rng-1 = 45
**.sensingnodes[22].rng-0 = 46
**.sensingnodes[22].rng-1 = 47
**.sensingnodes[23].rng-0 = 48
**.sensingnodes[23].rng-1 = 49
**.sensingnodes[24].rng-0 = 50
**.sensingnodes[24].rng-1 = 51
**.sensingnodes[25].rng-0 = 52
**.sensingnodes[25].rng-1 = 53
**.sensingnodes[26].rng-0 = 54
**.sensingnodes[26].rng-1 = 55
**.sensingnodes[27].rng-0 = 56
**.sensingnodes[27].rng-1 = 57
**.sensingnodes[28].rng-0 = 58
**.sensingnodes[28].rng-1 = 59
**.sensingnodes[29].rng-0 = 60
**.sensingnodes[29].rng-1 = 61
**.sensingnodes[30].rng-0 = 62
**.sensingnodes[30].rng-1 = 63
**.sensingnodes[31].rng-0 = 64
**.sensingnodes[31].rng-1 = 65
**.sensingnodes[32].rng-0 = 66
**.sensingnodes[32].rng-1 = 67
**.sensingnodes[33].rng-0 = 68
**.sensingnodes[33].rng-1 = 69
**.sensingnodes[34].rng-0 = 70
**.sensingnodes[34].rng-1 = 71
**.sensingnodes[35].rng-0 = 72
**.sensingnodes[35].rng-1 = 73
**.sensingnodes[36].rng-0 = 74
**.sensingnodes[36].rng-1 = 75
**.sensingnodes[37].rng-0 = 76
**.sensingnodes[37].rng-1 = 77
**.sensingnodes[38].rng-0 = 78
**.sensingnodes[38].rng-1 = 79
**.sensingnodes[39].rng-0 = 80
**.sensingnodes[39].rng-1 = 81
**.sensingnodes[40].rng-0 = 82
**.sensingnodes[40].rng-1 = 83
**.sensingnodes[41].rng-0 = 84
**.sensingnodes[41].rng-1 = 85
**.sensingnodes[42].rng-0 = 86
**.sensingnodes[42].rng-1 = 87
**.sensingnodes[43].rng-0 = 88
**.sensingnodes[43].rng-1 = 89
**.sensingnodes[44].rng-0 = 90
**.sensingnodes[44].rng-1 = 91
**.sensingnodes[45].rng-0 = 92
**.sensingnodes[45].rng-1 = 93
**.sensingnodes[46].rng-0 = 94
**.sensingnodes[46].rng-1 = 95
**.sensingnodes[47].rng-0 = 96
**.sensingnodes[47].rng-1 = 97
**.sensingnodes[48].rng-0 = 98
**.sensingnodes[48].rng-1 = 99
**.sensingnodes[49].rng-0 = 100
**.sensingnodes[49].rng-1 = 101
**.sensingnodes[50].rng-0 = 102
**.sensingnodes[50].rng-1 = 103
**.sensingnodes[51].rng-0 = 104
**.sensingnodes[51].rng-1 = 105
**.sensingnodes[52].rng-0 = 106
**.sensingnodes[52].rng-1 = 107
**.sensingnodes[53].rng-0 = 108
**.sensingnodes[53].rng-1 = 109
**.sensingnodes[54].rng-0 = 110
**.sensingnodes[54].rng-1 = 111
**.sensingnodes[55].rng-0 = 112
**.sensingnodes[55].rng-1 = 113
**.sensingnodes[56].rng-0 = 114
**.sensingnodes[56].rng-1 = 115
**.sensingnodes[57].rng-0 = 116
**.sensingnodes[57].rng-1 = 117
**.sensingnodes[58].rng-0 = 118
**.sensingnodes[58].rng-1 = 119
**.sensingnodes[59].rng-0 = 120
**.sensingnodes[59].rng-1 = 121
**.sensingnodes[60].rng-0 = 122
**.sensingnodes[60].rng-1 = 123
**.sensingnodes[61].rng-0 = 124
**.sensingnodes[61].rng-1 = 125
**.sensingnodes[62].rng-0 = 126
**.sensingnodes[62].rng-1 = 127